13

Ag      10.10576918       9.97807887      13.32700495       0.00019772       0.00000005      -0.00531254
Ag      12.71120747       9.97819678      11.71661619      -0.00473296      -0.00035276      -0.00209985
Ag      10.91059869      12.45668619      11.71623095      -0.00115808      -0.00398197      -0.00202582
Ag       7.99786211      11.50977053      11.71676705       0.00315636      -0.00237819      -0.00163468
Ag       7.99824855       8.44646625      11.71687934       0.00325697       0.00245147      -0.00126725
Ag      10.91078455       7.50000000      11.71637918      -0.00136202       0.00422427      -0.00209897
Ag      12.21333140       8.44662473       9.11032225      -0.00335313       0.00282888       0.00179934
Ag      12.21305911      11.51013312       9.10988052      -0.00371103      -0.00260016       0.00168867
Ag       9.30025238      12.45650907       9.11045244       0.00166032      -0.00381796       0.00201924
Ag       7.50000000       9.97884487       9.11067414       0.00411320       0.00001679       0.00147440
Ag       9.30008817       7.50030477       9.11054131       0.00174177       0.00363089       0.00209375
Ag      10.10527625       9.97847552       7.50000000       0.00011063       0.00011159       0.00520533
Ag      10.10570404       9.97836497      10.41350880       0.00008189      -0.00015571      -0.00006626
